
     RDKit          3D

 24 26  0  0  0  0  0  0  0  0999 V2000
   -0.4236    3.0705   -0.0150 C   0  0  0  0  0  0  0  0  0  0  0  0
   -0.5982    3.2759   -0.4272 C   0  0  0  0  0  0  0  0  0  0  0  0
    0.1217    4.5449   -0.9045 C   0  0  0  0  0  0  0  0  0  0  0  0
   -0.5042    2.2726   -1.4624 N   0  0  0  0  0  0  0  0  0  0  0  0
    0.3080    1.1500   -1.3273 C   0  0  0  0  0  0  0  0  0  0  0  0
    1.6315    1.1027   -1.5768 N   0  0  0  0  0  0  0  0  0  0  0  0
    2.1952    0.1831   -0.7551 C   0  0  0  0  0  0  0  0  0  0  0  0
    3.4786   -0.3336   -0.6087 C   0  0  0  0  0  0  0  0  0  0  0  0
    3.7299   -1.0899    0.5306 C   0  0  0  0  0  0  0  0  0  0  0  0
    5.0799   -2.1903    0.6596 Cl  0  0  0  0  0  0  0  0  0  0  0  0
    2.7605   -1.1662    1.5228 C   0  0  0  0  0  0  0  0  0  0  0  0
    3.3102   -1.3220    3.1716 Cl  0  0  0  0  0  0  0  0  0  0  0  0
    1.4226   -1.0267    1.1790 C   0  0  0  0  0  0  0  0  0  0  0  0
    1.1593   -0.2779    0.0508 C   0  0  0  0  0  0  0  0  0  0  0  0
   -0.0138    0.3013   -0.3293 N   0  0  0  0  0  0  0  0  0  0  0  0
   -1.1113   -0.7706   -0.7442 C   0  0  1  0  0  0  0  0  0  0  0  0
   -1.2455   -1.1635    0.6942 O   0  0  0  0  0  0  0  0  0  0  0  0
   -2.4451   -2.0370    0.6766 C   0  0  1  0  0  0  0  0  0  0  0  0
   -3.0283   -1.2472    1.9980 C   0  0  0  0  0  0  0  0  0  0  0  0
   -4.3540   -1.0329    1.8372 O   0  0  0  0  0  0  0  0  0  0  0  0
   -3.4358   -1.1308   -0.3760 C   0  0  2  0  0  0  0  0  0  0  0  0
   -2.8585   -1.8402   -1.5708 O   0  0  0  0  0  0  0  0  0  0  0  0
   -2.4414    0.2396   -0.3877 C   0  0  2  0  0  0  0  0  0  0  0  0
   -2.7377    0.4884   -1.8353 O   0  0  0  0  0  0  0  0  0  0  0  0
  1  2  1  0
  2  3  1  0
  2  4  1  0
  4  5  1  0
  5  6  2  0
  6  7  1  0
  7  8  2  0
  8  9  1  0
  9 10  1  0
  9 11  2  0
 11 12  1  0
 11 13  1  0
 13 14  2  0
 14 15  1  0
 16 15  1  1
 16 17  1  0
 17 18  1  0
 18 19  1  1
 19 20  1  0
 18 21  1  0
 21 22  1  6
 21 23  1  0
 23 24  1  6
 15  5  1  0
 23 16  1  0
 14  7  1  0
M  END
>  <zinc_id>  (1) 
ZINC000003824412

>  <smiles>  (1) 
CC(C)Nc1nc2cc(Cl)c(Cl)cc2n1[C@H]1O[C@@H](CO)[C@H](O)[C@@H]1O

$$$$
