
     RDKit          3D

 40 43  0  0  0  0  0  0  0  0999 V2000
    2.6761   -4.0858    1.4259 C   0  0  0  0  0  0  0  0  0  0  0  0
    3.3844   -3.7881    0.1825 C   0  0  0  0  0  0  0  0  0  0  0  0
    4.5386   -4.4763   -0.0582 C   0  0  0  0  0  0  0  0  0  0  0  0
    4.8645   -5.5653    0.7289 O   0  0  0  0  0  0  0  0  0  0  0  0
    5.2591   -4.2492   -1.1958 C   0  0  0  0  0  0  0  0  0  0  0  0
    4.8386   -3.2482   -2.0402 C   0  0  0  0  0  0  0  0  0  0  0  0
    3.5561   -2.7371   -1.8762 C   0  0  0  0  0  0  0  0  0  0  0  0
    2.8335   -2.8773   -0.7199 C   0  0  0  0  0  0  0  0  0  0  0  0
    1.7522   -2.0529   -0.2699 C   0  0  0  0  0  0  0  0  0  0  0  0
    1.1365   -2.4316    0.7746 O   0  0  0  0  0  0  0  0  0  0  0  0
    1.3390   -0.7624   -0.6435 N   0  0  0  0  0  0  0  0  0  0  0  0
    1.8244    0.3211    0.3766 C   0  0  1  0  0  0  0  0  0  0  0  0
    1.9130    1.4691   -0.7933 C   0  0  0  0  0  0  0  0  0  0  0  0
    3.7073    1.7724   -0.9064 S   0  0  0  0  0  0  0  0  0  0  0  0
    4.1466    3.3388   -0.1901 C   0  0  0  0  0  0  0  0  0  0  0  0
    4.6915    3.4743    1.0731 C   0  0  0  0  0  0  0  0  0  0  0  0
    4.9201    4.7081    1.6416 C   0  0  0  0  0  0  0  0  0  0  0  0
    4.7140    5.8287    0.8588 C   0  0  0  0  0  0  0  0  0  0  0  0
    4.1086    5.7286   -0.3844 C   0  0  0  0  0  0  0  0  0  0  0  0
    4.1302    4.4731   -0.9719 C   0  0  0  0  0  0  0  0  0  0  0  0
    0.2857    0.9072    0.9166 C   0  0  2  0  0  0  0  0  0  0  0  0
    0.3420   -0.0417    2.1081 O   0  0  0  0  0  0  0  0  0  0  0  0
   -0.6798   -0.1088    0.0574 C   0  0  0  0  0  0  0  0  0  0  0  0
   -1.9016    0.6610    0.0202 N   0  0  0  0  0  0  0  0  0  0  0  0
   -2.2801    1.3678    1.1115 C   0  0  0  0  0  0  0  0  0  0  0  0
   -2.6049    0.5224    2.4559 C   0  0  1  0  0  0  0  0  0  0  0  0
   -3.7216    1.6211    2.9249 C   0  0  0  0  0  0  0  0  0  0  0  0
   -3.9456    1.0962    4.3445 C   0  0  0  0  0  0  0  0  0  0  0  0
   -4.4553   -0.3256    4.1166 C   0  0  0  0  0  0  0  0  0  0  0  0
   -4.9917   -0.2727    2.6897 C   0  0  0  0  0  0  0  0  0  0  0  0
   -3.6861   -0.6264    1.7816 C   0  0  1  0  0  0  0  0  0  0  0  0
   -4.1615    0.3102    0.5390 C   0  0  0  0  0  0  0  0  0  0  0  0
   -2.9834   -0.4174   -0.3901 C   0  0  1  0  0  0  0  0  0  0  0  0
   -3.4524    0.3398   -1.7529 C   0  0  0  0  0  0  0  0  0  0  0  0
   -3.7949    1.5119   -1.6662 O   0  0  0  0  0  0  0  0  0  0  0  0
   -4.3130   -0.5479   -2.4776 N   0  0  0  0  0  0  0  0  0  0  0  0
   -5.5957   -0.2490   -3.0172 C   0  0  0  0  0  0  0  0  0  0  0  0
   -5.7704    1.1341   -3.5516 C   0  0  0  0  0  0  0  0  0  0  0  0
   -6.6751   -0.4321   -1.9527 C   0  0  0  0  0  0  0  0  0  0  0  0
   -5.9489   -1.2900   -4.0776 C   0  0  0  0  0  0  0  0  0  0  0  0
  1  2  1  0
  2  3  2  0
  3  4  1  0
  3  5  1  0
  5  6  2  0
  6  7  1  0
  7  8  2  0
  8  9  1  0
  9 10  2  0
  9 11  1  0
 12 11  1  6
 12 13  1  0
 13 14  1  0
 14 15  1  0
 15 16  2  0
 16 17  1  0
 17 18  2  0
 18 19  1  0
 19 20  2  0
 12 21  1  0
 21 22  1  1
 21 23  1  0
 23 24  1  0
 24 25  1  0
 26 25  1  6
 26 27  1  0
 27 28  1  0
 28 29  1  0
 29 30  1  0
 31 30  1  1
 31 32  1  0
 32 33  1  0
 33 34  1  6
 34 35  2  0
 34 36  1  0
 36 37  1  0
 37 38  1  0
 37 39  1  0
 37 40  1  0
  8  2  1  0
 20 15  1  0
 33 24  1  0
 31 26  1  0
M  END
>  <zinc_id>  (1) 
ZINC000003833846

>  <smiles>  (1) 
Cc1c(O)cccc1C(=O)N[C@@H](CSc1ccccc1)[C@H](O)CN1C[C@H]2CCCC[C@H]2C[C@H]1C(=O)NC(C)(C)C

$$$$
