
     RDKit          3D

 32 34  0  0  0  0  0  0  0  0999 V2000
    7.8633    1.4797    3.7088 C   0  0  0  0  0  0  0  0  0  0  0  0
    6.8640    1.3491    2.6250 C   0  0  0  0  0  0  0  0  0  0  0  0
    7.1638    1.3291    1.3034 N   0  0  0  0  0  0  0  0  0  0  0  0
    5.9712    1.3282    0.7088 N   0  0  0  0  0  0  0  0  0  0  0  0
    5.0885    0.7699    1.5660 C   0  0  0  0  0  0  0  0  0  0  0  0
    3.9952   -0.1644    1.2701 C   0  0  0  0  0  0  0  0  0  0  0  0
    3.8725   -1.2644    1.8867 O   0  0  0  0  0  0  0  0  0  0  0  0
    3.0392    0.0822    0.2480 N   0  0  0  0  0  0  0  0  0  0  0  0
    2.5934   -0.9920   -0.6358 C   0  0  0  0  0  0  0  0  0  0  0  0
    2.9646   -2.3087    0.0255 C   0  0  0  0  0  0  0  0  0  0  0  0
    3.4277   -0.8794   -1.8926 C   0  0  0  0  0  0  0  0  0  0  0  0
    1.1441   -0.8935   -0.8989 C   0  0  0  0  0  0  0  0  0  0  0  0
    0.3544    0.0734   -0.3715 N   0  0  0  0  0  0  0  0  0  0  0  0
   -0.9690   -0.1547   -0.1833 C   0  0  0  0  0  0  0  0  0  0  0  0
   -1.9055    0.9386    0.1088 C   0  0  0  0  0  0  0  0  0  0  0  0
   -2.7421    0.7962    1.1955 O   0  0  0  0  0  0  0  0  0  0  0  0
   -2.3772    1.5542   -0.9366 N   0  0  0  0  0  0  0  0  0  0  0  0
   -3.6787    2.1697   -0.9764 C   0  0  0  0  0  0  0  0  0  0  0  0
   -4.7672    1.1870   -0.6802 C   0  0  0  0  0  0  0  0  0  0  0  0
   -5.1660    0.2344   -1.6104 C   0  0  0  0  0  0  0  0  0  0  0  0
   -6.0563   -0.7221   -1.1377 C   0  0  0  0  0  0  0  0  0  0  0  0
   -7.0510   -0.3297   -0.2539 C   0  0  0  0  0  0  0  0  0  0  0  0
   -8.1310   -1.1336   -0.0495 F   0  0  0  0  0  0  0  0  0  0  0  0
   -6.9984    0.9741    0.2228 C   0  0  0  0  0  0  0  0  0  0  0  0
   -5.7646    1.6107    0.1900 C   0  0  0  0  0  0  0  0  0  0  0  0
   -1.4877   -1.3802   -0.5835 C   0  0  0  0  0  0  0  0  0  0  0  0
   -2.6450   -1.8275    0.0150 O   0  0  0  0  0  0  0  0  0  0  0  0
   -0.7317   -2.2810   -1.3233 C   0  0  0  0  0  0  0  0  0  0  0  0
   -1.3445   -3.1012   -2.0687 O   0  0  0  0  0  0  0  0  0  0  0  0
    0.5593   -1.9346   -1.5387 N   0  0  0  0  0  0  0  0  0  0  0  0
    1.2621   -2.5144   -2.6801 C   0  0  0  0  0  0  0  0  0  0  0  0
    5.6527    0.8696    2.7468 O   0  0  0  0  0  0  0  0  0  0  0  0
  1  2  1  0
  2  3  2  0
  3  4  1  0
  4  5  2  0
  5  6  1  0
  6  7  2  0
  6  8  1  0
  8  9  1  0
  9 10  1  0
  9 11  1  0
  9 12  1  0
 12 13  2  0
 13 14  1  0
 14 15  1  0
 15 16  1  0
 15 17  2  0
 17 18  1  0
 18 19  1  0
 19 20  2  0
 20 21  1  0
 21 22  2  0
 22 23  1  0
 22 24  1  0
 24 25  2  0
 14 26  2  0
 26 27  1  0
 26 28  1  0
 28 29  2  0
 28 30  1  0
 30 31  1  0
  5 32  1  0
 32  2  1  0
 30 12  1  0
 25 19  1  0
M  END
>  <zinc_id>  (1) 
ZINC000013831130

>  <smiles>  (1) 
Cc1nnc(C(=O)NC(C)(C)c2nc(/C(O)=N/Cc3ccc(F)cc3)c(O)c(=O)n2C)o1

$$$$
